test/data/enwl/networks/network_23/Feeder_3/Lines.txt
New Line.LINE1 Bus1=1 Bus2=2 phases=3 Linecode=4c_185_SAC_XC Length=0.31707 Units=m
New Line.LINE2 Bus1=2 Bus2=3 phases=3 Linecode=4c_185_SAC_XC Length=0.075238 Units=m
New Line.LINE3 Bus1=3 Bus2=4 phases=3 Linecode=4c_185_SAC_XC Length=0.25965 Units=m
New Line.LINE4 Bus1=4 Bus2=5 phases=3 Linecode=4c_185_SAC_XC Length=0.081836 Units=m
New Line.LINE5 Bus1=5 Bus2=6 phases=3 Linecode=4c_185_SAC_XC Length=0.14136 Units=m
New Line.LINE6 Bus1=6 Bus2=7 phases=3 Linecode=4c_185_SAC_XC Length=0.54571 Units=m
New Line.LINE7 Bus1=7 Bus2=8 phases=3 Linecode=4c_185_SAC_XC Length=0.033955 Units=m
New Line.LINE8 Bus1=8 Bus2=9 phases=3 Linecode=4c_185_SAC_XC Length=0.048022 Units=m
New Line.LINE9 Bus1=9 Bus2=10 phases=3 Linecode=4c_185_SAC_XC Length=0.87129 Units=m
New Line.LINE10 Bus1=10 Bus2=11 phases=3 Linecode=4c_185_SAC_XC Length=0.22361 Units=m
New Line.LINE11 Bus1=11 Bus2=12 phases=3 Linecode=4c_185_SAC_XC Length=0.21634 Units=m
New Line.LINE12 Bus1=12 Bus2=13 phases=3 Linecode=4c_185_SAC_XC Length=0.15621 Units=m
New Line.LINE13 Bus1=13 Bus2=14 phases=3 Linecode=4c_185_SAC_XC Length=4.4212 Units=m
New Line.LINE14 Bus1=14 Bus2=15 phases=3 Linecode=4c_185_SAC_XC Length=0.47632 Units=m
New Line.LINE15 Bus1=15 Bus2=16 phases=3 Linecode=4c_185_SAC_XC Length=8.1736 Units=m
New Line.LINE16 Bus1=16 Bus2=17 phases=3 Linecode=4c_185_SAC_XC Length=7.4785 Units=m
New Line.LINE17 Bus1=17 Bus2=18 phases=3 Linecode=4c_185_SAC_XC Length=4.8492 Units=m
New Line.LINE18 Bus1=18 Bus2=19 phases=3 Linecode=4c_185_SAC_XC Length=0.22871 Units=m
New Line.LINE19 Bus1=19 Bus2=20 phases=3 Linecode=4c_185_SAC_XC Length=2.8192 Units=m
New Line.LINE20 Bus1=20 Bus2=21 phases=3 Linecode=4c_185_SAC_XC Length=0.24463 Units=m
New Line.LINE21 Bus1=21 Bus2=22 phases=3 Linecode=4c_185_SAC_XC Length=0.14148 Units=m
New Line.LINE22 Bus1=22 Bus2=23 phases=3 Linecode=4c_185_SAC_XC Length=0.23439 Units=m
New Line.LINE23 Bus1=23 Bus2=24 phases=3 Linecode=4c_185_SAC_XC Length=0.2589 Units=m
New Line.LINE24 Bus1=24 Bus2=25 phases=3 Linecode=4c_185_SAC_XC Length=0.18341 Units=m
New Line.LINE25 Bus1=25 Bus2=26 phases=3 Linecode=4c_185_SAC_XC Length=0.090139 Units=m
New Line.LINE26 Bus1=26 Bus2=27 phases=3 Linecode=4c_185_SAC_XC Length=0.11908 Units=m
New Line.LINE27 Bus1=27 Bus2=28 phases=3 Linecode=4c_185_SAC_XC Length=0.14237 Units=m
New Line.LINE28 Bus1=28 Bus2=29 phases=3 Linecode=4c_185_SAC_XC Length=0.13952 Units=m
New Line.LINE29 Bus1=29 Bus2=30 phases=3 Linecode=4c_185_SAC_XC Length=0.15682 Units=m
New Line.LINE30 Bus1=30 Bus2=31 phases=3 Linecode=4c_185_SAC_XC Length=0.18718 Units=m
New Line.LINE31 Bus1=31 Bus2=32 phases=3 Linecode=4c_185_SAC_XC Length=0.42724 Units=m
New Line.LINE32 Bus1=32 Bus2=33 phases=3 Linecode=4c_185_SAC_XC Length=0.30449 Units=m
New Line.LINE33 Bus1=33 Bus2=34 phases=3 Linecode=4c_185_SAC_XC Length=0.219 Units=m
New Line.LINE34 Bus1=34 Bus2=35 phases=3 Linecode=4c_185_SAC_XC Length=0.312 Units=m
New Line.LINE35 Bus1=35 Bus2=36 phases=3 Linecode=4c_185_SAC_XC Length=0.034999 Units=m
New Line.LINE36 Bus1=36 Bus2=37 phases=3 Linecode=4c_.5_SAC Length=0.41301 Units=m
New Line.LINE37 Bus1=37 Bus2=38 phases=3 Linecode=4c_.5_SAC Length=0.1978 Units=m
New Line.LINE38 Bus1=38 Bus2=39 phases=3 Linecode=4c_.5_SAC Length=0.24201 Units=m
New Line.LINE39 Bus1=39 Bus2=40 phases=3 Linecode=4c_.5_SAC Length=0.29 Units=m
New Line.LINE40 Bus1=40 Bus2=41 phases=3 Linecode=4c_.5_SAC Length=0.27718 Units=m
New Line.LINE41 Bus1=41 Bus2=42 phases=3 Linecode=4c_.5_SAC Length=0.21223 Units=m
New Line.LINE42 Bus1=42 Bus2=43 phases=3 Linecode=4c_.5_SAC Length=0.25316 Units=m
New Line.LINE43 Bus1=43 Bus2=44 phases=3 Linecode=4c_.5_SAC Length=0.25813 Units=m
New Line.LINE44 Bus1=44 Bus2=45 phases=3 Linecode=4c_.5_SAC Length=0.26708 Units=m
New Line.LINE45 Bus1=45 Bus2=46 phases=3 Linecode=4c_.5_SAC Length=0.30806 Units=m
New Line.LINE46 Bus1=46 Bus2=47 phases=3 Linecode=4c_.5_SAC Length=2.1235 Units=m
New Line.LINE47 Bus1=47 Bus2=48 phases=3 Linecode=4c_.5_SAC Length=4.6834 Units=m
New Line.LINE48 Bus1=48 Bus2=49 phases=3 Linecode=4c_.5_SAC Length=0.38809 Units=m
New Line.LINE49 Bus1=49 Bus2=50 phases=3 Linecode=4c_.5_SAC Length=0.38116 Units=m
New Line.LINE50 Bus1=50 Bus2=51 phases=3 Linecode=4c_.5_SAC Length=0.40078 Units=m
New Line.LINE51 Bus1=51 Bus2=52 phases=3 Linecode=4c_.5_SAC Length=0.35027 Units=m
New Line.LINE52 Bus1=52 Bus2=53 phases=3 Linecode=4c_.5_SAC Length=1.3753 Units=m
New Line.LINE53 Bus1=53 Bus2=54 phases=3 Linecode=4c_.5_SAC Length=8.616 Units=m
New Line.LINE54 Bus1=54 Bus2=55 phases=3 Linecode=4c_.5_SAC Length=4.5837 Units=m
New Line.LINE55 Bus1=55 Bus2=56 phases=3 Linecode=4c_.5_SAC Length=4.8921 Units=m
New Line.LINE56 Bus1=56 Bus2=57 phases=3 Linecode=25_SAC_XC Length=20.1692 Units=m
New Line.LINE57 Bus1=56 Bus2=58 phases=3 Linecode=25_SAC_XC Length=20.1692 Units=m
